Version 4
SHEET 1 3408 772
WIRE 1568 -1712 1568 -1744
WIRE 1568 -1584 1568 -1632
WIRE 1568 -1408 1568 -1504
WIRE 1568 -1408 1424 -1408
WIRE 1664 -1408 1568 -1408
WIRE 1792 -1408 1664 -1408
WIRE 1792 -1376 1792 -1408
WIRE 1424 -1344 1424 -1408
WIRE 1792 -1248 1792 -1296
WIRE 1424 -1232 1424 -1264
WIRE 272 -1184 272 -1248
WIRE 160 -1168 128 -1168
WIRE 240 -1168 160 -1168
WIRE 480 -1152 304 -1152
WIRE 592 -1152 480 -1152
WIRE 912 -1152 592 -1152
WIRE 1216 -1152 992 -1152
WIRE 1264 -1152 1216 -1152
WIRE 1376 -1152 1264 -1152
WIRE 1792 -1152 1792 -1184
WIRE 192 -1136 160 -1136
WIRE 240 -1136 192 -1136
WIRE 592 -1136 592 -1152
WIRE 1424 -1088 1424 -1136
WIRE 272 -1072 272 -1120
WIRE 480 -1040 480 -1152
WIRE 1216 -1040 1216 -1152
WIRE 592 -976 592 -1056
WIRE 128 -848 128 -1168
WIRE 480 -848 480 -976
WIRE 480 -848 128 -848
WIRE 592 -848 592 -912
WIRE 592 -848 480 -848
WIRE 784 -848 592 -848
WIRE 896 -848 784 -848
WIRE 1120 -848 976 -848
WIRE 1216 -848 1216 -960
WIRE 1216 -848 1120 -848
WIRE 1424 -848 1424 -1008
WIRE 1424 -848 1216 -848
WIRE 1424 -784 1424 -848
WIRE 784 -736 784 -848
WIRE 848 -736 784 -736
WIRE 992 -736 912 -736
WIRE 1120 -736 1120 -848
WIRE 1120 -736 1072 -736
WIRE -1504 -688 -1504 -784
WIRE -1232 -688 -1232 -784
WIRE -960 -688 -960 -784
WIRE 1424 -656 1424 -704
WIRE -1504 -560 -1504 -608
WIRE -1232 -560 -1232 -608
WIRE -960 -560 -960 -608
WIRE 1664 -560 1664 -1408
WIRE 1664 -560 1424 -560
WIRE 1424 -480 1424 -560
WIRE -928 -432 -976 -432
WIRE -256 -416 -256 -464
WIRE 1424 -336 1424 -400
WIRE -976 -320 -976 -432
WIRE 272 -288 272 -352
WIRE 240 -272 128 -272
WIRE 512 -256 304 -256
WIRE 624 -256 512 -256
WIRE 912 -256 624 -256
WIRE 1232 -256 992 -256
WIRE 1376 -256 1232 -256
WIRE 192 -240 160 -240
WIRE 240 -240 192 -240
WIRE 624 -240 624 -256
WIRE -976 -192 -976 -240
WIRE 1424 -192 1424 -240
WIRE 272 -176 272 -224
WIRE 512 -144 512 -256
WIRE 1232 -144 1232 -256
WIRE 624 -80 624 -160
WIRE 128 48 128 -272
WIRE 512 48 512 -80
WIRE 512 48 128 48
WIRE 624 48 624 -16
WIRE 624 48 512 48
WIRE 784 48 624 48
WIRE 896 48 784 48
WIRE 1120 48 976 48
WIRE 1232 48 1232 -64
WIRE 1232 48 1120 48
WIRE 1424 48 1424 -112
WIRE 1424 48 1232 48
WIRE 1424 112 1424 48
WIRE 784 160 784 48
WIRE 848 160 784 160
WIRE 992 160 912 160
WIRE 1120 160 1120 48
WIRE 1120 160 1072 160
WIRE 1424 240 1424 192
FLAG 272 -1248 Vcc
FLAG -976 -192 0
FLAG -1504 -560 0
FLAG -1232 -560 0
FLAG -1504 -784 Vcc
FLAG -1232 -784 Vsup
FLAG 1424 -656 0
FLAG 1568 -1744 Vsup
FLAG -960 -560 0
FLAG -960 -784 Vee
FLAG 272 -1072 Vee
FLAG 1264 -1152 Vg1
FLAG 160 -1168 V_feedback1
FLAG -256 -416 0
FLAG 1792 -1152 0
FLAG 192 -1136 Vref
FLAG -928 -432 Vref
FLAG 272 -352 Vcc
FLAG 1424 240 0
FLAG 272 -176 Vee
FLAG 192 -240 Vref
SYMBOL Opamps\\opamp2 272 -1216 R0
SYMATTR InstName U1
SYMATTR Value TLV9162
SYMBOL voltage -976 -336 R0
WINDOW 3 -22 106 Right 2
WINDOW 123 0 0 Left 0
WINDOW 39 -22 134 Right 2
SYMATTR Value PULSE(0 1 .02m 100p 100p 1 1)
SYMATTR SpiceLine Rser=0.01
SYMATTR InstName V1
SYMBOL voltage -1504 -704 R0
WINDOW 123 0 0 Left 0
WINDOW 39 24 44 Left 2
SYMATTR InstName V2
SYMATTR Value 12
SYMBOL voltage -1232 -704 R0
WINDOW 123 0 0 Left 0
WINDOW 39 24 44 Left 2
SYMATTR InstName V3
SYMATTR Value 5
SYMBOL res 1408 -800 R0
SYMATTR InstName R1
SYMATTR Value {Rs}
SYMBOL res 992 -864 R90
WINDOW 0 0 56 VBottom 2
WINDOW 3 32 56 VTop 2
SYMATTR InstName R2
SYMATTR Value {Rfb}
SYMBOL cap 464 -1040 R0
SYMATTR InstName C1
SYMATTR Value {Chf}
SYMATTR SpiceLine Rser=0.01
SYMBOL ind 1552 -1600 R0
SYMATTR InstName L1
SYMATTR Value {Lin}
SYMATTR SpiceLine Rser=0.05
SYMBOL cap 912 -752 R90
WINDOW 0 0 32 VBottom 2
WINDOW 3 32 32 VTop 2
SYMATTR InstName C2
SYMATTR Value {Cff}
SYMBOL voltage -960 -704 R0
WINDOW 123 0 0 Left 0
WINDOW 39 24 44 Left 2
SYMATTR InstName V5
SYMATTR Value 0
SYMBOL res 576 -1152 R0
SYMATTR InstName R3
SYMATTR Value {Rcomp}
SYMBOL cap 576 -976 R0
SYMATTR InstName C3
SYMATTR Value {Ccomp}
SYMBOL res 1008 -1168 R90
WINDOW 0 0 56 VBottom 2
WINDOW 3 32 56 VTop 2
SYMATTR InstName R4
SYMATTR Value {Rg}
SYMBOL IRF3205 1376 -1232 R0
SYMATTR InstName U2
SYMBOL voltage -256 -560 R0
WINDOW 123 0 0 Left 0
WINDOW 39 0 0 Left 0
SYMATTR InstName V4
SYMATTR Value 1
SYMBOL res 1088 -752 R90
WINDOW 0 0 56 VBottom 2
WINDOW 3 32 56 VTop 2
SYMATTR InstName R5
SYMATTR Value {Rff}
SYMBOL cap 1776 -1248 R0
SYMATTR InstName C4
SYMATTR Value {Cin}
SYMBOL res 1776 -1392 R0
SYMATTR InstName R6
SYMATTR Value {Rin}
SYMBOL res 1552 -1728 R0
SYMATTR InstName R7
SYMATTR Value .01
SYMBOL Opamps\\opamp2 272 -320 R0
SYMATTR InstName U4
SYMATTR Value TLV9162
SYMBOL res 1408 96 R0
SYMATTR InstName R8
SYMATTR Value {Rs}
SYMBOL res 992 32 R90
WINDOW 0 0 56 VBottom 2
WINDOW 3 32 56 VTop 2
SYMATTR InstName R9
SYMATTR Value {Rfb}
SYMBOL cap 496 -144 R0
SYMATTR InstName C5
SYMATTR Value {Chf}
SYMATTR SpiceLine Rser=0.01
SYMBOL cap 912 144 R90
WINDOW 0 0 32 VBottom 2
WINDOW 3 32 32 VTop 2
SYMATTR InstName C6
SYMATTR Value {Cff}
SYMBOL res 608 -256 R0
SYMATTR InstName R10
SYMATTR Value {Rcomp}
SYMBOL cap 608 -80 R0
SYMATTR InstName C7
SYMATTR Value {Ccomp}
SYMBOL res 1008 -272 R90
WINDOW 0 0 56 VBottom 2
WINDOW 3 32 56 VTop 2
SYMATTR InstName R11
SYMATTR Value {Rg}
SYMBOL IRF3205 1376 -336 R0
SYMATTR InstName U5
SYMBOL res 1088 144 R90
WINDOW 0 0 56 VBottom 2
WINDOW 3 32 56 VTop 2
SYMATTR InstName R12
SYMATTR Value {Rff}
SYMBOL res 1200 -1056 R0
SYMATTR InstName R13
SYMATTR Value {Rgs}
SYMBOL res 1216 -160 R0
SYMATTR InstName R14
SYMATTR Value {Rgs}
SYMBOL ind 1408 -1360 R0
SYMATTR InstName L2
SYMATTR Value 4.5nH
SYMBOL ind 1408 -1104 R0
SYMATTR InstName L3
SYMATTR Value 7.5nH
SYMBOL ind 1408 -496 R0
SYMATTR InstName L4
SYMATTR Value 4.5nH
SYMBOL ind 1408 -208 R0
SYMATTR InstName L5
SYMATTR Value 7.5nH
TEXT -1640 -1264 Left 2 !.tran 0 30us 15u
TEXT -1640 -1216 Left 2 !.lib TLV9162.lib
TEXT -1632 -1176 Left 2 !.lib SC5200.lib
TEXT -1640 -1296 Left 2 ;.ac dec 50 100 10MEG
TEXT -1640 -1136 Left 2 !.lib IRF3205.lib
TEXT -1648 -1112 Left 2 ;.nodeset V(vout)=1 V(Vg)=5.2 V(V_feedback)=1
TEXT -1624 -1416 Left 2 !.param Chf=82pF Cff=280pF Rff=100 Rcomp=1.5k Ccomp=470pF Rg=91 Rfb=5.1k Rgs=10k Rhf=1MEG
TEXT -848 -1272 Left 2 ;.step param Ccomp 100pF 500pF 100pF
TEXT -840 -1232 Left 2 ;.step dec param Lin 10n 10u 2
TEXT -1624 -1464 Left 2 !.param Lin=100nH Rin=1.8 Cin=1.0uF
TEXT -1616 -1520 Left 2 !.param Rs=0.2
