Version 4
SHEET 1 4600 1908
WIRE 960 -256 960 -304
WIRE 960 -128 960 -176
WIRE 960 80 960 -48
WIRE -192 128 -192 64
WIRE -1632 144 -1632 48
WIRE -1488 144 -1488 48
WIRE -1344 144 -1344 48
WIRE -224 144 -336 144
WIRE 112 160 -160 160
WIRE 224 160 112 160
WIRE 304 160 224 160
WIRE 448 160 304 160
WIRE 704 160 528 160
WIRE 912 160 704 160
WIRE -224 176 -624 176
WIRE 224 176 224 160
WIRE 704 208 704 160
WIRE -624 224 -624 176
WIRE 112 224 112 160
WIRE -192 240 -192 192
WIRE -1632 272 -1632 224
WIRE -1488 272 -1488 224
WIRE -1344 272 -1344 224
WIRE 224 272 224 256
WIRE 960 288 960 176
WIRE 1040 288 960 288
WIRE -624 352 -624 304
WIRE -336 352 -336 144
WIRE -256 352 -336 352
WIRE -192 352 -256 352
WIRE -16 352 -112 352
WIRE 0 352 -16 352
WIRE 112 352 112 288
WIRE 112 352 0 352
WIRE 224 352 224 336
WIRE 224 352 112 352
WIRE 320 352 224 352
WIRE 432 352 320 352
WIRE 656 352 512 352
WIRE 704 352 704 288
WIRE 704 352 656 352
WIRE 960 352 960 288
WIRE 960 352 704 352
WIRE -336 384 -336 352
WIRE 960 416 960 352
WIRE 320 464 320 352
WIRE 384 464 320 464
WIRE 512 464 448 464
WIRE 656 464 656 352
WIRE 656 464 592 464
WIRE -336 480 -336 448
WIRE 960 544 960 496
WIRE 0 560 0 352
WIRE -336 624 -336 560
WIRE 944 784 944 752
WIRE -256 944 -352 944
WIRE 0 944 0 624
WIRE 0 944 -256 944
WIRE 944 1120 944 864
WIRE -208 1168 -208 1104
WIRE -352 1184 -352 944
WIRE -240 1184 -352 1184
WIRE 96 1200 -176 1200
WIRE 208 1200 96 1200
WIRE 304 1200 208 1200
WIRE 432 1200 304 1200
WIRE 736 1200 512 1200
WIRE 768 1200 736 1200
WIRE 896 1200 768 1200
WIRE -240 1216 -624 1216
WIRE 208 1216 208 1200
WIRE 736 1248 736 1200
WIRE -624 1264 -624 1216
WIRE 96 1264 96 1200
WIRE -208 1280 -208 1232
WIRE 208 1312 208 1296
WIRE 944 1344 944 1216
WIRE 992 1344 944 1344
WIRE -624 1392 -624 1344
WIRE -352 1392 -352 1184
WIRE -208 1392 -352 1392
WIRE 96 1392 96 1328
WIRE 96 1392 -128 1392
WIRE 208 1392 208 1376
WIRE 208 1392 96 1392
WIRE 304 1392 208 1392
WIRE 416 1392 304 1392
WIRE 640 1392 496 1392
WIRE 736 1392 736 1328
WIRE 736 1392 640 1392
WIRE 944 1392 944 1344
WIRE 944 1392 736 1392
WIRE 944 1456 944 1392
WIRE 304 1504 304 1392
WIRE 368 1504 304 1504
WIRE 496 1504 432 1504
WIRE 640 1504 640 1392
WIRE 640 1504 576 1504
WIRE 944 1584 944 1536
FLAG -192 64 Vcc
FLAG -1632 272 0
FLAG -1344 272 0
FLAG -1632 48 Vcc
FLAG -1344 48 Vsup
FLAG 960 544 0
FLAG 960 -304 Vsup
FLAG 1040 288 Vout1
FLAG -624 352 0
FLAG -1488 272 0
FLAG -1488 48 Vee
FLAG -192 240 Vee
FLAG -256 352 Vbreak_in1
FLAG -16 352 Vbreak_out
FLAG -336 624 0
FLAG -208 1104 Vcc
FLAG 944 1584 0
FLAG 944 752 Vsup
FLAG -624 1392 0
FLAG -208 1280 Vee
FLAG 768 1200 Vg2
FLAG -256 944 Vbreak_in2
FLAG 992 1344 Vout2
FLAG 304 160 Vo1
FLAG 304 1200 Vo2
DATAFLAG -496 176 ""
DATAFLAG -288 144 ""
DATAFLAG 32 160 ""
DATAFLAG 832 352 ""
DATAFLAG 672 160 ""
DATAFLAG 928 1392 ""
DATAFLAG -304 1392 ""
DATAFLAG 656 1200 ""
DATAFLAG 704 1200 ""
SYMBOL Opamps\\opamp2 -192 96 R0
SYMATTR InstName U1
SYMATTR Value TLV9162
SYMBOL voltage -1632 128 R0
WINDOW 123 0 0 Left 0
WINDOW 39 0 0 Left 0
SYMATTR InstName V2
SYMATTR Value 9
SYMBOL voltage -1344 128 R0
WINDOW 123 0 0 Left 0
WINDOW 39 0 0 Left 0
SYMATTR InstName V3
SYMATTR Value 5
SYMBOL res 944 400 R0
SYMATTR InstName R1
SYMATTR Value 0.1
SYMBOL res 528 336 R90
WINDOW 0 0 56 VBottom 2
WINDOW 3 32 56 VTop 2
SYMATTR InstName R2
SYMATTR Value 4.7k
SYMBOL voltage -624 208 R0
WINDOW 3 43 99 Right 2
WINDOW 123 0 0 Left 0
WINDOW 39 0 0 Left 0
SYMATTR Value 1
SYMATTR InstName V5
SYMBOL cap 96 224 R0
SYMATTR InstName C1
SYMATTR Value {Chf}
SYMATTR SpiceLine Rser=0.01
SYMBOL ind 944 -144 R0
SYMATTR InstName L1
SYMATTR Value {Lin}
SYMATTR SpiceLine Rser=0.05
SYMBOL cap 448 448 R90
WINDOW 0 0 32 VBottom 2
WINDOW 3 32 32 VTop 2
SYMATTR InstName C2
SYMATTR Value {Cff}
SYMBOL voltage -1488 128 R0
WINDOW 123 0 0 Left 0
WINDOW 39 0 0 Left 0
SYMATTR InstName V6
SYMATTR Value 0
SYMBOL res 208 160 R0
SYMATTR InstName R4
SYMATTR Value {Rcomp}
SYMBOL cap 208 272 R0
SYMATTR InstName C3
SYMATTR Value {Ccomp}
SYMBOL res 544 144 R90
WINDOW 0 0 56 VBottom 2
WINDOW 3 32 56 VTop 2
SYMATTR InstName R8
SYMATTR Value 47
SYMBOL ind -208 368 R270
WINDOW 0 32 56 VTop 2
WINDOW 3 5 56 VBottom 2
SYMATTR InstName L2
SYMATTR Value 1GH
SYMBOL voltage -336 464 R0
WINDOW 123 32 92 Left 2
WINDOW 39 0 0 Left 0
SYMATTR Value2 AC 1
SYMATTR InstName V4
SYMATTR Value ""
SYMBOL cap -352 384 R0
SYMATTR InstName C4
SYMATTR Value 1kF
SYMBOL Opamps\\opamp2 -208 1136 R0
SYMATTR InstName U4
SYMATTR Value TLV9162
SYMBOL res 928 1440 R0
SYMATTR InstName R3
SYMATTR Value 0.1
SYMBOL res 512 1376 R90
WINDOW 0 0 56 VBottom 2
WINDOW 3 32 56 VTop 2
SYMATTR InstName R10
SYMATTR Value 4.7k
SYMBOL voltage -624 1248 R0
WINDOW 3 -22 106 Right 2
WINDOW 123 0 0 Left 0
WINDOW 39 0 0 Left 0
SYMATTR Value 1
SYMATTR InstName V9
SYMBOL cap 80 1264 R0
SYMATTR InstName C5
SYMATTR Value {Chf}
SYMATTR SpiceLine Rser=0.01
SYMBOL ind 928 768 R0
SYMATTR InstName L3
SYMATTR Value 10nH
SYMATTR SpiceLine Rser=0.05
SYMBOL cap 432 1488 R90
WINDOW 0 0 32 VBottom 2
WINDOW 3 32 32 VTop 2
SYMATTR InstName C6
SYMATTR Value {Cff}
SYMBOL res 192 1200 R0
SYMATTR InstName R11
SYMATTR Value {Rcomp}
SYMBOL cap 192 1312 R0
SYMATTR InstName C7
SYMATTR Value {Ccomp}
SYMBOL res 528 1184 R90
WINDOW 0 0 56 VBottom 2
WINDOW 3 32 56 VTop 2
SYMATTR InstName R13
SYMATTR Value 47
SYMBOL ind -224 1408 R270
WINDOW 0 32 56 VTop 2
WINDOW 3 5 56 VBottom 2
SYMATTR InstName L4
SYMATTR Value 1GH
SYMBOL cap -16 560 R0
SYMATTR InstName C8
SYMATTR Value 1kF
SYMBOL res 592 1488 R90
WINDOW 0 0 56 VBottom 2
WINDOW 3 32 56 VTop 2
SYMATTR InstName R5
SYMATTR Value {Rff}
SYMBOL res 608 448 R90
WINDOW 0 0 56 VBottom 2
WINDOW 3 32 56 VTop 2
SYMATTR InstName R6
SYMATTR Value {Rff}
SYMBOL IRF3205 896 1120 R0
SYMATTR InstName U7
SYMBOL IRF3205 912 80 R0
SYMATTR InstName U2
SYMBOL res 688 192 R0
SYMATTR InstName R7
SYMATTR Value {Rgs}
SYMBOL res 720 1232 R0
SYMATTR InstName R9
SYMATTR Value {Rgs}
SYMBOL res 944 -272 R0
SYMATTR InstName R12
SYMATTR Value 0.01
TEXT -1504 -272 Left 2 ;.tran 0 60us 5u
TEXT -1504 -224 Left 2 !.lib TLV9162.lib
TEXT -1496 -184 Left 2 !.lib SC5200.lib
TEXT -1504 -304 Left 2 !.ac dec 50 1000 100MEG
TEXT -1504 -144 Left 2 !.lib IRF3205.lib
TEXT -1512 -96 Left 2 !.lib LMC660.lib
TEXT -1504 -368 Left 2 !.ic V(Vbreak_in1)=1 V(Vg1)=5.245 V(Vout1)=1 V(Vo1)=5.25 V(Vbreak_in2)=1 V(Vg2)=5.245 V(Vout2)=1 V(Vo1)=5.25
TEXT -1488 -512 Left 2 !.param Chf=82pF Cff=280pF Rff=100 Rcomp=1.5k Ccomp=470pF Rg=91 Rfb=5.1k Rgs=10k Rhf=1MEG
TEXT -1560 976 Left 2 !.step param Rgs list 100 1000 10000
TEXT -1504 -424 Left 2 !.param Lin=100nH Rin=1.8 Cin=1.0uF
